*Heading
** Job name: Job-14 Model name: Model-3
** Generated by: Abaqus/CAE 6.14-1
*Preprint, echo=NO, model=NO, history=NO, contact=NO
**
** PARTS
**
*Part, name=Part-1
*Node
      1, 0.0161017552, 0.0345303267,           0.
      2, -0.00986100547, 0.0368017741,           0.
      3, -0.0218532626, 0.0312096924,           0.
      4, -0.0368017741, 0.00986100547,           0.
      5, -0.0379550196, -0.0033206339,           0.
      6, -0.0269407686, -0.0269407686,           0.
      7, -0.0161017552, -0.0345303267,           0.
      8, 0.00986100547, -0.0368017741,           0.
      9, 0.0218532626, -0.0312096924,           0.
     10, 0.0368017741, -0.00986100547,           0.
     11, 0.0379550196, 0.0033206339,           0.
     12, 0.0269407686, 0.0269407686,           0.
     13, 0.00672077714, 0.0439389758,           0.
     14, -0.0181013271, 0.0405973457,           0.
     15, -0.0371763855, 0.0243663453,           0.
     16, -0.0425352752, 0.0129055381,           0.
     17, -0.042760212, -0.0121394768,           0.
     18, -0.0294090826, -0.0333302915,           0.
     19, -0.00672077714, -0.0439389758,           0.
     20, 0.0181013271, -0.0405973457,           0.
** ... 5539 like lines cut
*Element, type=C3D8R
   1,   75,   63,   52,   82,   24,   12,    1,   31
   2,   64,   82,   52,   76,   13,   31,    1,   25
   3,   76,   53,   83,   64,   25,    2,   32,   13
   4,   53,   92,   65,   83,    2,   41,   14,   32
   5,   84,   93,   94,   66,   33,   42,   43,   15
   6,   85,   67,   95,   96,   34,   16,   44,   45
   7,  102,   68,   85,   96,   51,   17,   34,   45
   8,   69,   57,   58,   87,   18,    6,    7,   36
   9,   58,   79,   70,   87,    7,   28,   19,   36
  10,   59,   60,   71,   88,    8,    9,   20,   37
  11,   99,  100,   80,   61,   48,   49,   29,   10
  12,   98,   97,   74,   90,   47,   46,   23,   39
  13,   91,   81,   63,   75,   40,   30,   12,   24
  14,   61,   62,   98,   99,   10,   11,   47,   48
  15,   80,  100,  101,   60,   29,   49,   50,    9
  16,   79,   59,   88,   70,   28,    8,   37,   19
  17,   86,   78,   57,   69,   35,   27,    6,   18
  18,   93,   84,   65,   92,   42,   33,   14,   41
  19,   94,   77,   55,   95,   43,   26,    4,   44
  20,  101,  100,   72,   89,   50,   49,   21,   38
** ... 3328 like lines cut
*Nset, nset=Set-1, generate
    1,  5559,     1
*Elset, elset=Set-1, generate
    1,  3348,     1
** Section: Section-1
*Solid Section, elset=Set-1, material=Material-1
,
*End Part
**  
**
** ASSEMBLY
**
*Assembly, name=Assembly
**  
*Instance, name=Part-1-1, part=Part-1
*End Instance
**  
*Node
      1,           0.,  2.72177742e-18,           0.
*Node
      2,           0.,  -2.72177742e-18,   1.39999998
*Node
      3, -0.200000003,           0.,           0.
*Node
      4, -0.200000003,           0.,   1.39999998
*Nset, nset=Set-9
 4,
*Nset, nset=Set-10
 3,
*Nset, nset=Set-11
 2,
*Nset, nset=Set-12
 1,
*Nset, nset=m_Set-1
 2,
*Nset, nset=m_Set-3
 1,
*Nset, nset=s_Set-1, instance=Part-1-1, generate
 5509,  5559,     1
*Elset, elset=s_Set-1, instance=Part-1-1, generate
 3318,  3348,     1
*Nset, nset=s_Set-3, instance=Part-1-1, generate
  1,  51,   1
*Elset, elset=s_Set-3, instance=Part-1-1, generate
  1,  31,   1
*Surface, type=NODE, name=s_Set-1_CNS_, internal
s_Set-1, 1.
*Surface, type=NODE, name=s_Set-3_CNS_, internal
s_Set-3, 1.
** Constraint: Constraint-1
*MPC
LINK, s_Set-1, m_Set-1
** Constraint: Constraint-2
*MPC
LINK, s_Set-3, m_Set-3
*Spring, elset=Springs/Dashpots-1-spring

3.
*Element, type=SpringA, elset=Springs/Dashpots-1-spring
1, 1, 3
*Spring, elset=Springs/Dashpots-2-spring

3.
*Element, type=SpringA, elset=Springs/Dashpots-2-spring
2, 2, 4
*End Assembly
** 
** MATERIALS
** 
*Material, name=Material-1
*Density
1163.,
*Elastic
 3.2e+09, 0.3
** ----------------------------------------------------------------
** 
** STEP: Step-1
** 
*Step, name=Step-1, nlgeom=NO, perturbation
*Frequency, eigensolver=Lanczos, acoustic coupling=on, normalization=displacement
10, , , , , 
** 
** BOUNDARY CONDITIONS
** 
** Name: BC-1 Type: Symmetry/Antisymmetry/Encastre
*Boundary
Set-9, ENCASTRE
** Name: BC-2 Type: Symmetry/Antisymmetry/Encastre
*Boundary
Set-10, ENCASTRE
** Name: BC-3 Type: Displacement/Rotation
*Boundary
Set-11, 2, 2
Set-11, 4, 4
Set-11, 5, 5
Set-11, 6, 6
** Name: BC-4 Type: Displacement/Rotation
*Boundary
Set-12, 2, 2
Set-12, 4, 4
Set-12, 5, 5
Set-12, 6, 6
** 
** OUTPUT REQUESTS
** 
*Restart, write, frequency=0
** 
** FIELD OUTPUT: F-Output-1
** 
*Output, field, variable=PRESELECT
*End Step
